[TITLE]


[JUNCTIONS]
;ID              	Elev        	Demand      	Pattern         
 J1               	18          	14           	pat1                	;
 J2               	16          	6          	pat1                	;

[RESERVOIRS]
;ID              	Head        	Pattern         

[TANKS]
;ID              	Elevation   	InitLevel   	MinLevel    	MaxLevel    	Diameter    	MinVol      	VolCurve        	Overflow
 T1               	32          	10          	0           	20          	16          	0           	                	;

[PIPES]
;ID              	Node1           	Node2           	Length      	Diameter    	Roughness   	MinorLoss   	Status
 P1               	T1               	J1               	3200        	120         	100         	0           	Open  	;
 P2               	J1               	J2               	1600        	100         	100         	0           	Open  	;

[PUMPS]
;ID              	Node1           	Node2           	Parameters

[VALVES]
;ID              	Node1           	Node2           	Diameter    	Type	Setting     	MinorLoss   

[TAGS]

[DEMANDS]
;Junction        	Demand      	Pattern         	Category

[STATUS]
;ID              	Status/Setting

[PATTERNS]
;ID              	Multipliers
pat1			1.0	1.1	1.2	1.3	1.15	0.8	0.7	0.9	0.95	1.05

[CURVES]
;ID              	X-Value     	Y-Value

[CONTROLS]

[RULES]

[ENERGY]

[EMITTERS]
;Junction        	Coefficient

[QUALITY]
;Node            	InitQual

[SOURCES]
;Node            	Type        	Quality     	Pattern

[REACTIONS]
;Type     	Pipe/Tank       	Coefficient




[MIXING]
;Tank            	Model


[TIMES]
 DURATION            10:00:00
 HYDRAULIC TIMESTEP  0:10:00
 QUALITY TIMESTEP    1:00:00
 REPORT TIMESTEP     1:00:00
 REPORT START        0:00:00
 PATTERN TIMESTEP    1:00:00
 PATTERN START       0:00:00
 RULE TIMESTEP       0:06:00
 START CLOCKTIME     0:00:00
 STATISTIC           NONE


[OPTIONS]
 Units                  CMH
 Headloss           	H-W
 Specific Gravity   	1.0
 Viscosity          	1.0
 Trials             	40
 Accuracy           	0.001
 CHECKFREQ          	2
 MAXCHECK           	10
 DAMPLIMIT          	0
 Unbalanced         	Continue 10
 Pattern            	1
 Demand Multiplier  	1.0
 ;Demand Model       	PDA
 ;Minimum Pressure   	0
 ;Required Pressure  	0.1
 ;Pressure Exponent  	0.5
 Emitter Exponent   	0.5
 Quality            	None mg/L
 Diffusivity        	1.0
 Tolerance          	0.01


[COORDINATES]
;Node            	X-Coord           	Y-Coord
J1               	20          	        70        
J2               	30          	        70       
T1               	10          		70     

[VERTICES]
;Link            	X-Coord           	Y-Coord

[LABELS]
;X-Coord             Y-Coord             Label & Anchor Node

[BACKDROP]
  DIMENSIONS  	0.000             	60.000             	40.000         	80.000         
 UNITS          	None
 FILE           	
 OFFSET         	0.00            	0.00          


[REPORT]
Status             	No
Summary            	No
Page               	0
Nodes			All
Links			All

[REPORT]
DEMAND PRECISION 4
HEAD PRECISION 4
PRESSURE PRECISION 4
FLOW PRECISION 4
VELOCITY PRECISION 4

  

[END]
